*Heading
** Job name: pelvic-floor Model name: Model-1
** Generated by: Abaqus/CAE 6.14-1
*Preprint, echo=NO, model=NO, history=NO, contact=NO
**
** PARTS
**
*Part, name=Part-1
*End Part
**  
**
** ASSEMBLY
**
*Assembly, name=Assembly
**  
*Instance, name=Part-1-1, part=Part-1
*Node
      1, -0.00597730046, 0.0571884774,           0.
      2, -0.011889834, 0.0562572815,           0.
      3, -0.0176735334, 0.0547165088,           0.
      4, -0.0232657287, 0.0525828488,           0.
      5, -0.0286058281, 0.0498794205,           0.
      6, -0.0336359665, 0.0466355197,           0.
      7, -0.0383016393, 0.0428862981,           0.
      8, -0.0425522886, 0.0386723764,           0.
      9, -0.0463418625, 0.0340394154,           0.
     10, -0.0496292934, 0.0290376209,           0.
     11,  -0.05237896, 0.0237211846,           0.
     12, -0.0545610711, 0.0181477144,           0.
     13, -0.0561519787, 0.0123776048,           0.
     14, -0.0571344495, 0.00647337548,           0.
     15, -0.0574978329, 0.000499003625,           0.
     16, -0.0573939309, -0.00349092111,           0.
     17, -0.0567200929, -0.00943828281,           0.
     18, -0.0554316565, -0.0152833741,           0.
     19, -0.0535425842, -0.0209628623,           0.
     20,  -0.05107335, -0.0264152046,           0.
** ... 3201 like lines cut
*Element, type=S3
 1, 2824, 1171,  317
 2, 2060, 2008, 2026
 3, 1911, 1884,  181
 4, 2947, 1322, 2923
 5, 1344, 1267,  589
 6,  160, 1544, 1601
 7, 1286,   81, 1248
 8, 3030, 2165, 2170
 9, 2663, 2645, 2623
10, 2668, 2648, 2665
11, 2717, 2710,  379
12, 2131, 2096, 2036
13, 1537, 1671,  505
14, 1917,  557, 1858
15,  604, 1647, 1654
16, 1169,  635,  982
17, 1051, 2804, 1070
18, 1278, 1271, 1204
19, 2806, 1242,  263
20, 1343, 1109, 1243
** ... 69 like lines cut
*Element, type=S4R
  90,  848,  857,  629, 1129
  91,  857,  852,  925,  629
  92, 1129, 1092,  628,  848
  93,  613,  987, 1025, 1115
  94,  610, 1021, 1745, 1065
  95, 1218, 1118, 1016,  574
  96,  550, 1024, 2797, 1151
  97,  526, 1035,  968,  928
  98,  502, 1142, 2771,  975
  99,  825,   19,  685,  803
 100,  449,   18,  683, 2761
 101,  449,  900,  422,  856
 102, 1232,  423, 1192, 1230
 103, 1340, 1474,  424, 1302
 104, 2755, 1837, 2892,  452
 105, 2966, 1866, 2039, 1829
 106, 2985, 3022, 2039, 1866
 107, 3071, 2303, 2056, 2245
 108,  457, 2238, 2204, 2159
 109, 2319,  430, 2238,  457
** ... 3065 like lines cut
*Nset, nset=_PickedSet2, internal, generate
    1,  3221,     1
*Elset, elset=_PickedSet2, internal, generate
    1,  3174,     1
** Section: Section-1
*Shell Section, elset=_PickedSet2, material=Material-1
0.094, 21
*End Instance
**  
*Nset, nset=_PickedSet5, internal, instance=Part-1-1
   1,   2,   3,   4,   5,   6,   7,   8,   9,  10,  11,  12,  13,  14,  15,  16
  17,  18,  19,  20,  21,  22,  23,  24,  25,  26,  27,  28,  29,  30,  31,  32
  33,  34,  35,  36,  37,  38,  39,  40,  41,  42,  43,  44,  45,  46,  47,  48
  49,  50,  51,  52,  53,  54,  55,  56,  57,  58,  59,  60,  61, 648, 649, 650
 651, 652, 653, 654, 655, 656, 657, 658, 659, 660, 661, 662, 663, 664, 665, 666
 667, 668, 669, 670, 671, 672, 673, 674, 675, 676, 677, 678, 679, 680, 681, 682
 683, 684, 685, 686, 687, 688, 689, 690, 691, 692, 693, 694, 695, 696, 697, 698
 699, 700, 701, 702, 703, 704, 705, 706, 707, 708, 709, 710, 711, 712, 713, 714
 715, 716, 717, 718, 719, 720, 721, 722, 723, 724, 725, 726, 727, 728, 729, 730
 731, 732, 733, 734, 735, 736, 737, 738, 739, 740, 741, 742, 743, 744, 745, 746
 747, 748, 749, 750, 751, 752, 753, 754, 755, 756, 757, 758, 759, 760, 761, 762
 763, 764, 765, 766, 767
*Elset, elset=_PickedSet5, internal, instance=Part-1-1
   99,  100,  128,  130,  143,  144,  145,  146,  147,  181,  198,  214,  215,  217,  224,  225
  229,  242,  243,  244,  245,  246,  247,  256,  259,  260,  263,  264,  268,  273,  277,  278
  279,  281,  284,  287,  288,  289,  290,  291,  292,  293,  320,  321,  339,  343,  355,  358
  359,  362,  363,  385,  386,  387,  394,  395,  399,  400,  413,  414,  415,  427,  428,  444
  445,  457,  458,  467,  469,  470,  471,  478,  479,  480,  481,  482,  484,  487,  489,  491
  492,  494,  495,  497,  498,  499,  500,  509,  523,  650,  777,  980, 1122, 1125, 1141, 1142
 1143, 1177, 1178, 1184, 1194, 1200, 1203, 1204, 1206, 1207, 1208, 1209, 1210, 1211, 1212, 1214
 1216, 1217, 1218, 1219, 1220, 1221, 1223, 1224, 1225, 1226, 1228, 1229, 1230, 1231, 1232, 1233
 1234, 1235, 1236, 1238, 1239, 1240, 1242, 1243, 1244, 1245, 1247, 1248, 1249, 1250, 1251, 1253
 1254, 1255, 1256, 1257, 1258, 1259, 1260, 1261, 1263, 1264, 1265, 1266, 1269, 1272, 1273, 1275
 1276, 1277, 1278, 1279, 1296, 1299, 1313, 1316, 1323, 1328, 1329, 1331, 1344, 1346, 1348, 1351
 1355, 1359, 1362, 1371, 1419
*Elset, elset=__PickedSurf4_SPOS, internal, instance=Part-1-1, generate
    1,  3174,     1
*Surface, type=ELEMENT, name=_PickedSurf4, internal
__PickedSurf4_SPOS, SPOS
*End Assembly
** 
** MATERIALS
** 
*Material, name=Material-1
*Density
1400.,
*Hyperelastic, mooney-rivlin
26000.,14000.,  0.05
** ----------------------------------------------------------------
** 
** STEP: Step-1
** 
*Step, name=Step-1, nlgeom=YES, inc=1000
*Static
1., 1., 1e-05, 1.
** 
** BOUNDARY CONDITIONS
** 
** Name: BC-1 Type: Displacement/Rotation
*Boundary
_PickedSet5, 1, 1
_PickedSet5, 2, 2
_PickedSet5, 3, 3
** 
** LOADS
** 
** Name: Load-1   Type: Pressure
*Dsload
_PickedSurf4, P, 80.
** 
** OUTPUT REQUESTS
** 
*Restart, write, frequency=0
** 
** FIELD OUTPUT: F-Output-1
** 
*Output, field, variable=PRESELECT
** 
** HISTORY OUTPUT: H-Output-1
** 
*Output, history, variable=PRESELECT
*End Step
